    1    NPP_HOUSE.in - NPP model test
       
  194   69    3    0   29    0    3    3
   9.81
 -05.0
$ Nodal points
    1C   0    0    0    1    1    1  .0        .0       -05.0        0
    2C   0    0    0    1    1    1  16.25     .0       -05.0        0
    9C   0    0    0    1    1    1  16.25     315.     -05.0        1
   10C   0    0    0    1    1    1  32.5      .0       -05.0        0
   21C   0    0    0    1    1    1  32.5      330.     -05.0        1
   22C   0    0    0    1    1    1  48.75     .0       -05.0        0
   45C   0    0    0    1    1    1  48.75     345.     -05.0        1
   46C   0    0    0    1    1    1  65.00     .0       -05.0        0
   69C   0    0    0    1    1    1  65.00     345.     -05.0        1
   70C   0    0    0    1    1    1  .0        .0       00.00        0
   71C   0    0    0    1    1    1  16.25     .0       00.00        0
   78C   0    0    0    1    1    1  16.25     315.     00.00        1 
   79C   0    0    0    0    0    0  32.50     .000     00.00        0 
   90C   0    0    0    0    0    0  32.50     330.     00.00        1 
   91C   0    0    0    1    1    1  48.75     .0       00.00        0
  114C   0    0    0    1    1    1  48.75     345.     00.00        1 
  115C   0    0    0    0    0    0  65.00     .000     00.00        0 
  138C   0    0    0    0    0    0  65.00     345.0    00.00        1 
$ Nodes for stick model (container) 
  139    0    0    0    0    0    0   0.00      0.00     00.00
  140    0    0    0    0    0    0   0.00      0.00     00.00
$ Nodes for stick model (internal structure-stiffness)
  141    0    0    0    0    0    0   0.54      0.00     07.00
  142    0    0    0    0    0    0   0.00      0.00     07.00
  143    0    0    0    0    0    0   0.00      0.00     12.00
  144    0    0    0    0    0    0   0.00      0.00     15.40
  145    0    0    0    0    0    0   0.00      0.00     18.00
  146    0    0    0    0    0    0   0.00      9.86     18.00
  147    0    0    0    0    0    0   0.00      9.86     22.88
  148    0    0    0    0    0    0   0.00      9.86     27.00
  149    0    0    0    0    0    0   1.36      10.95    27.00
  150    0    0    0    0    0    0   1.36      10.95    30.60
  151    0    0    0    0    0    0   1.36      10.95    34.00
  152    0    0    0    0    0    0   -1.00     12.37    34.00
  153    0    0    0    0    0    0   -1.00     12.37    36.00
  154    0    0    0    0    0    0   0.00      13.13    36.00
  155    0    0    0    0    0    0   0.00      13.13    39.00
  156    0    0    0    0    0    0   0.00      -9.86    18.00
  157    0    0    0    0    0    0   0.00      -9.86    22.88
  158    0    0    0    0    0    0   0.00      -9.86    27.00
  159    0    0    0    0    0    0   1.36      -10.95   27.00
  160    0    0    0    0    0    0   1.36      -10.95   30.60
  161    0    0    0    0    0    0   1.36      -10.95   34.00
  162    0    0    0    0    0    0   -1.00     -12.37   34.00
  163    0    0    0    0    0    0   -1.00     -12.37   36.00
  164    0    0    0    0    0    0   0.00      -13.13   36.00
  165    0    0    0    0    0    0   0.00      -13.13   39.00
$ Nodes for stick model (internal structure-mass)
  166    0    0    0    0    0    0   1.07      0.00     00.00
  167    0    0    0    0    0    0   -1.75     -0.01    07.00
  168    0    0    0    0    0    0   1.31      -0.05    12.00
  169    0    0    0    0    0    0   0.12      0.00     15.40
  170    0    0    0    0    0    0   0.09      -0.09    18.00
  171    0    0    0    0    0    0   0.39      10.35    22.88
  172    0    0    0    0    0    0   0.97      10.50    27.00
  173    0    0    0    0    0    0   0.95      10.96    30.60
  174    0    0    0    0    0    0   1.60      11.48    34.00
  175    0    0    0    0    0    0   -1.06     12.17    36.00
  176    0    0    0    0    0    0   0.00      13.82    39.00
  177    0    0    0    0    0    0   -1.33     -9.99    22.88
  178    0    0    0    0    0    0   -0.65     -10.22   27.00
  179    0    0    0    0    0    0   0.66      -11.06   30.60
  180    0    0    0    0    0    0   1.94      -11.68   34.00
  181    0    0    0    0    0    0   -0.48     -12.33   36.00
  182    0    0    0    0    0    0   0.01      -13.83   39.00
  183    0    0    0    0    0    0   0.00      0.00     07.00  
  184    0    0    0    0    0    0   0.00      0.00     12.00 
  185    0    0    0    0    0    0   0.00      0.00     15.40 
  186    0    0    0    0    0    0   0.00      0.00     18.00 
  187    0    0    0    0    0    0   0.00      0.00     22.88 
  188    0    0    0    0    0    0   0.00      0.00     27.00 
  189    0    0    0    0    0    0   0.00      0.00     30.60 
  190    0    0    0    0    0    0   0.00      0.00     36.00 
  191    0    0    0    0    0    0   0.00      0.00     39.25 
  192    0    0    0    0    0    0   0.00      0.00     47.24 
  193    0    0    0    0    0    0   0.00      0.00     53.37 
  194    0    0    0    0    0    0   0.00      0.00     59.50

$ brick elemnts with rigid proeprties    
    1   88    1   -1    1
    1     30E09  .200      .1       .00       .00
    1    2    3    1    1   71   72   70   70    3    1    1      
    2    3    4    1    1   72   73   70   70    3    1    1
    3    4    5    1    1   73   74   70   70    3    1    1
    4    5    6    1    1   74   75   70   70    3    1    1
    5    6    7    1    1   75   76   70   70    3    1    1
    6    7    8    1    1   76   77   70   70    3    1    1
    7    8    9    1    1   77   78   70   70    3    1    1
    8    9    2    1    1   78   71   70   70    3    1    1
    9   10   11    2    2   79   80   71   71    3    1    1
   10    2   11    3    3   71   80   72   72    3    1    1
   11   11   12    3    3   80   81   72   72    3    1    1
   12    3   12    4    4   72   81   73   73    3    1    1
   13   12   13    4    4   81   82   73   73    3    1    1
   14    4   13   14   14   73   82   83   83    3    1    1
   15    4   14    5    5   73   83   74   74    3    1    1
   16    5   14   15   15   74   83   84   84    3    1    1
   17    5   15    6    6   74   84   75   75    3    1    1
   18    6   15   16   16   75   84   85   85    3    1    1
   19   16   17    6    6   85   86   75   75    3    1    1
   20    6   17    7    7   75   86   76   76    3    1    1
   21   17   18    7    7   86   87   76   76    3    1    1
   22    7   18    8    8   76   87   77   77    3    1    1
   23    8   18   19   19   77   87   88   88    3    1    1
   24    8   19   20   20   77   88   89   89    3    1    1
   25    8   20    9    9   77   89   78   78    3    1    1
   26    9   20   21   21   78   89   90   90    3    1    1
   27   21    2    9    9   90   71   78   78    3    1    1
   28    2   21   10   10   71   90   79   79    3    1    1
   29   22   23   10   10   91   92   79   79    3    1    1
   30   10   23   11   11   79   92   80   80    3    1    1
   31   11   23   24   24   80   92   93   93    3    1    1
   32   24   25   11   11   93   94   80   80    3    1    1
   33   11   25   12   12   80   94   81   81    3    1    1
   34   12   25   26   26   81   94   95   95    3    1    1
   35   26   27   12   12   95   96   81   81    3    1    1
   36   12   27   13   13   81   96   82   82    3    1    1
   37   13   27   28   28   82   96   97   97    3    1    1
   38   28   29   13   13   97   98   82   82    3    1    1
   39   13   29   14   14   82   98   83   83    3    1    1
   40   14   29   30   30   83   98   99   99    3    1    1
   41   30   31   14   14   99  100   83   83    3    1    1
   42   14   31   15   15   83  100   84   84    3    1    1
   43   15   31   32   32   84  100  101  101    3    1    1
   44   32   33   15   15  101  102   84   84    3    1    1
   45   15   33   16   16   84  102   85   85    3    1    1
   46   16   33   34   34   85  102  103  103    3    1    1
   47   34   35   16   16  103  104   85   85    3    1    1
   48   16   35   17   17   85  104   86   86    3    1    1
   49   17   35   36   36   86  104  105  105    3    1    1
   50   36   37   17   17  105  106   86   86    3    1    1
   51   17   37   18   18   86  106   87   87    3    1    1
   52   18   37   38   38   87  106  107  107    3    1    1
   53   38   39   18   18  107  108   87   87    3    1    1
   54   18   39   19   19   87  108   88   88    3    1    1
   55   19   39   40   40   88  108  109  109    3    1    1
   56   40   41   19   19  109  110   88   88    3    1    1
   57   19   41   20   20   88  110   89   89    3    1    1
   58   20   41   42   42   89  110  111  111    3    1    1
   59   42   43   20   20  111  112   89   89    3    1    1
   60   20   43   21   21   89  112   90   90    3    1    1
   61   21   43   44   44   90  112  113  113    3    1    1
   62   44   45   21   21  113  114   90   90    3    1    1
   63   21   45   10   10   90  114   79   79    3    1    1
   64   10   45   22   22   79  114   91   91    3    1    1
   65   22   46   47   23   91  115  116   92    3    1    1
   66   23   47   48   24   92  116  117   93    3    1    1
   67   24   48   49   25   93  117  118   94    3    1    1
   68   25   49   50   26   94  118  119   95    3    1    1
   69   26   50   51   27   95  119  120   96    3    1    1
   70   27   51   52   28   96  120  121   97    3    1    1
   71   28   52   53   29   97  121  122   98    3    1    1
   72   29   53   54   30   98  122  123   99    3    1    1
   73   30   54   55   31   99  123  124  100    3    1    1
   74   31   55   56   32  100  124  125  101    3    1    1
   75   32   56   57   33  101  125  126  102    3    1    1
   76   33   57   58   34  102  126  127  103    3    1    1
   77   34   58   59   35  103  127  128  104    3    1    1
   78   35   59   60   36  104  128  129  105    3    1    1
   79   36   60   61   37  105  129  130  106    3    1    1
   80   37   61   62   38  106  130  131  107    3    1    1
   81   38   62   63   39  107  131  132  108    3    1    1
   82   39   63   64   40  108  132  133  109    3    1    1
   83   40   64   65   41  109  133  134  110    3    1    1
   84   41   65   66   42  110  134  135  111    3    1    1
   85   42   66   67   43  111  135  136  112    3    1    1
   86   43   67   68   44  112  136  137  113    3    1    1
   87   44   68   69   45  113  137  138  114    3    1    1
   88   45   69   46   22  114  138  115   91    3    1    1
$ ========================================================================
$ beam elemnts to model the above grade
    2   54    2   13   -1 
    1     30E09  .200      .1       .02       .02
    2     30E09  .200      .1       .00       .00
    1    163.38    81.69     81.69   68190.99  31818.60  36372.39 
    2    163.38    81.69     81.69   68190.99  36372.39  31818.60
    3    156.42    78.21     78.21   62610.61  33489.34  29121.26
    4    144.53    72.26     72.26   42237.26  22742.44  19494.82
    5    127.50    63.75     63.75   14657.84  7328.920  7328.920
$
    6    2.4e05    1.2e5     1.2e5   2.100e06  2.500e06  2.500e06
$   
    7    239.39   110.59    125.32  20323.14   19553.20  25026.20
    8    263.12   125.94    133.36  21470.47   21768.82  26290.98
    9    262.13   108.86    149.44  21182.65   21416.67  26559.84
   10     84.95    24.82     60.08   2364.79    8065.13   1756.38
   11     71.32    24.82     46.45   1843.03    4901.50   1226.23
   12     56.25    17.62     38.58    747.91    3303.98    617.92
   13     49.05    10.42     38.58    483.17    2916.48    370.04
$   
$   
$
$ elements for stick model (container) 
    1  139  183   46    1    1
    2  183  184   46    1    1
    3  184  185   46    1    1
    4  185  186   46    1    1
    5  186  187   46    1    2
    6  187  188   46    1    2
    7  188  189   46    1    2
    8  189  190   46    1    2
    9  190  191   46    1    2
   10  191  192   46    1    3
   11  192  193   46    1    4
   12  193  194   46    1    5
$ elements for stick model (internal structure) 
   13  139  141   46    1    7
   14  141  142  140    2    6
   15  142  143   46    1    8
   16  143  144   46    1    8
   17  144  145   46    1    9
   18  145  146  140    2    6
   19  146  147   46    1   10
   20  147  148   46    1   10
   21  148  149  140    2    6
   22  149  150   46    1   11
   23  150  151   46    1   11
   24  151  152  140    2    6
   25  152  153   46    1   12
   26  153  154  140    2    6
   27  154  155   46    1   13
   28  145  156  140    2    6
   29  156  157   46    1   10
   30  157  158   46    1   10
   31  158  159  140    2    6
   32  159  160   46    1   11
   33  160  161   46    1   11
   34  161  162  140    2    6
   35  162  163   46    1   12
   36  163  164  140    2    6
   37  164  165   46    1   13
   38  139  166  001    2    6
   39  141  167  140    2    6
   40  143  168  140    2    6
   41  144  169  140    2    6
   42  145  170  140    2    6
   43  147  171  140    2    6
   44  148  172  140    2    6
   45  150  173  140    2    6
   46  151  174  140    2    6
   47  153  175  140    2    6
   48  155  176  140    2    6
   49  157  177  140    2    6
   50  158  178  140    2    6
   51  160  179  140    2    6
   52  161  180  140    2    6
   53  163  181  140    2    6
   54  165  182  140    2    6
$ 
$ 
$ 
    2   32    1    1   -1
    1     30E09  .200      .1       .00       .00
    1    2.4e05    1.2e5     1.2e5   2.100e06  2.500e06  2.500e06
    1  115  116  139    1    1
   23  137  138  139    1    1    1
   24  138  115  139    1    1
   25  139  115  118    1    1
   26  139  121  118    1    1
   27  139  127  118    1    1
   28  139  133  118    1    1
   29  140  115  118    1    1
   30  140  121  118    1    1
   31  140  127  118    1    1
   32  140  133  118    1    1
$ Nodal mass points
  166    0  26355.E3  26355.E3  26355.E3    3.44e9    3.39e9    5.92e9
  167    0   4077.E3   4077.E3   4077.E3    4.02e8    3.96e8    7.79e8
  168    0   3595.E3   3595.E3   3595.E3    3.28e8    3.25e8    6.66e8
  169    0   2401.E3   2401.E3   2401.E3    2.23e8    1.67e8    3.87e8
  170    0   4793.E3   4793.E3   4793.E3    1.17e9    1.23e9    7.70e8
  171    0   1099.E3   1099.E3   1099.E3    2.13e7    9.10e7    1.09e8
  172    0    988.E3    988.E3    988.E3    1.93e7    8.06e7    9.80e7
  173    0    763.E3    763.E3    763.E3    1.21e7    5.14e7    6.23e7
  174    0    536.E3    536.E3    536.E3    7.34e6    3.16e7    3.83e7
  175    0    474.E3    474.E3    474.E3    5.19e6    2.79e7    3.26e7
  176    0    309.E3    309.E3    309.E3    1.83e6    1.47e7    1.61e7
  177    0   1322.E3   1322.E3   1322.E3    2.28e7    1.11e8    1.30e8
  178    0   1164.E3   1164.E3   1164.E3    1.92e7    9.71e7    1.14e8
  179    0    838.E3    838.E3    838.E3    1.21e7    5.61e7    6.69e7
  180    0    619.E3    619.E3    619.E3    7.69e6    3.31e7    4.00e7
  181    0    526.E3    526.E3    526.E3    4.77e6    2.71e7    3.14e7
  182    0    311.E3    311.E3    311.E3    1.90e6    5.09e6    1.61e7
$
$
$
  183    0   2434.E3   2434.E3   2434.E3  54763.e4  48205.e4 101386.e4
  184    0   2104.E3   2104.E3   2104.E3  38058.e4  33468.e4  70970.e4
  185    0   1217.E3   1217.E3   1217.E3  27082.e4  23803.e4  50693.e4
  186    0   1517.E3   1517.E3   1517.E3  31202.e4  32448.e4  63197.e4
  187    0   1825.E3   1825.E3   1825.E3  35875.e4  40793.e4  76040.e4
  188    0   1566.E3   1566.E3   1566.E3  30700.e4  34919.e4  65225.e4
  189    0   1825.E3   1825.E3   1825.E3  35906.e4  40824.e4  76040.e4
  190    0   1754.E3   1754.E3   1754.E3  34502.e4  39229.e4  73082.e4
  191    0   2212.E3   2212.E3   2212.E3  42644.e4  48787.e4  89663.e4
  192    0   2650.E3   2650.E3   2650.E3  44893.e4  52609.e4  95163.e4
  193    0   4956.E3   4956.E3   4956.E3  20937.e4  24286.e4  43936.e4
  194    0    958.E3    958.E3    958.E3   5788.e4   5788.e4  10977.e4
    0